Circuit: *** SPICE deck for cell inv_sim{lay} from library inv_20_10

Ignoring BSIM parameter XL
Ignoring BSIM parameter XW
Ignoring BSIM parameter XL
Ignoring BSIM parameter XW

Date: Thu Aug 17 17:39:20 2023
Total elapsed time: 0.367 seconds.

tnom = 27
temp = 27
method = trap
totiter = 10008
traniter = 0
tranpoints = 0
accept = 0
rejected = 0
matrix size = 5
fillins = 0
solver = Normal
Matrix Compiler1:       8 opcodes  0.0/[0.0]/0.0
Matrix Compiler2: 335 bytes object code size  0.0/0.1/[0.0]

