Circuit: *** SPICE deck for cell NMOS_IV{sch} from library transistor_charac

Ignoring BSIM parameter XL
Ignoring BSIM parameter XW
WARNING: Less than two connections to node W.  This node is used by VW.
Warning: Pd = 0 is less than W.
Warning: Ps = 0 is less than W.
.OP point found by inspection.
.step vg=0
.step vg=0.001
.step vg=0.002
.step vg=0.003
.step vg=0.004
.step vg=0.005
.step vg=0.006
.step vg=0.007
.step vg=0.008
.step vg=0.009
.step vg=0.01
.step vg=0.011
.step vg=0.012
.step vg=0.013
.step vg=0.014
.step vg=0.015
.step vg=0.016
.step vg=0.017
.step vg=0.018
.step vg=0.019
.step vg=0.02
.step vg=0.021
.step vg=0.022
.step vg=0.023
.step vg=0.024
.step vg=0.025
.step vg=0.026
.step vg=0.027
.step vg=0.028
.step vg=0.029
.step vg=0.03
.step vg=0.031
.step vg=0.032
.step vg=0.033
.step vg=0.034
.step vg=0.035
.step vg=0.036
.step vg=0.037
.step vg=0.038
.step vg=0.039
.step vg=0.04
.step vg=0.041
.step vg=0.042
.step vg=0.043
.step vg=0.044
.step vg=0.045
.step vg=0.046
.step vg=0.047
.step vg=0.048
.step vg=0.049
.step vg=0.05
.step vg=0.051
.step vg=0.052
.step vg=0.053
.step vg=0.054
.step vg=0.055
.step vg=0.056
.step vg=0.057
.step vg=0.058
.step vg=0.059
.step vg=0.06
.step vg=0.061
.step vg=0.062
.step vg=0.063
.step vg=0.064
.step vg=0.065
.step vg=0.066
.step vg=0.067
.step vg=0.068
.step vg=0.069
.step vg=0.07
.step vg=0.071
.step vg=0.072
.step vg=0.073
.step vg=0.074
.step vg=0.075
.step vg=0.076
.step vg=0.077
.step vg=0.078
.step vg=0.079
.step vg=0.08
.step vg=0.081
.step vg=0.082
.step vg=0.083
.step vg=0.084
.step vg=0.085
.step vg=0.086
.step vg=0.087
.step vg=0.088
.step vg=0.089
.step vg=0.09
.step vg=0.091
.step vg=0.092
.step vg=0.093
.step vg=0.094
.step vg=0.095
.step vg=0.096
.step vg=0.097
.step vg=0.098
.step vg=0.099
.step vg=0.1
.step vg=0.101
.step vg=0.102
.step vg=0.103
.step vg=0.104
.step vg=0.105
.step vg=0.106
.step vg=0.107
.step vg=0.108
.step vg=0.109
.step vg=0.11
.step vg=0.111
.step vg=0.112
.step vg=0.113
.step vg=0.114
.step vg=0.115
.step vg=0.116
.step vg=0.117
.step vg=0.118
.step vg=0.119
.step vg=0.12
.step vg=0.121
.step vg=0.122
.step vg=0.123
.step vg=0.124
.step vg=0.125
.step vg=0.126
.step vg=0.127
.step vg=0.128
.step vg=0.129
.step vg=0.13
.step vg=0.131
.step vg=0.132
.step vg=0.133
.step vg=0.134
.step vg=0.135
.step vg=0.136
.step vg=0.137
.step vg=0.138
.step vg=0.139
.step vg=0.14
.step vg=0.141
.step vg=0.142
.step vg=0.143
.step vg=0.144
.step vg=0.145
.step vg=0.146
.step vg=0.147
.step vg=0.148
.step vg=0.149
.step vg=0.15
.step vg=0.151
.step vg=0.152
.step vg=0.153
.step vg=0.154
.step vg=0.155
.step vg=0.156
.step vg=0.157
.step vg=0.158
.step vg=0.159
.step vg=0.16
.step vg=0.161
.step vg=0.162
.step vg=0.163
.step vg=0.164
.step vg=0.165
.step vg=0.166
.step vg=0.167
.step vg=0.168
.step vg=0.169
.step vg=0.17
.step vg=0.171
.step vg=0.172
.step vg=0.173
.step vg=0.174
.step vg=0.175
.step vg=0.176
.step vg=0.177
.step vg=0.178
.step vg=0.179
.step vg=0.18
.step vg=0.181
.step vg=0.182
.step vg=0.183
.step vg=0.184
.step vg=0.185
.step vg=0.186
.step vg=0.187
.step vg=0.188
.step vg=0.189
.step vg=0.19
.step vg=0.191
.step vg=0.192
.step vg=0.193
.step vg=0.194
.step vg=0.195
.step vg=0.196
.step vg=0.197
.step vg=0.198
.step vg=0.199
.step vg=0.2
.step vg=0.201
.step vg=0.202
.step vg=0.203
.step vg=0.204
.step vg=0.205
.step vg=0.206
.step vg=0.207
.step vg=0.208
.step vg=0.209
.step vg=0.21
.step vg=0.211
.step vg=0.212
.step vg=0.213
.step vg=0.214
.step vg=0.215
.step vg=0.216
.step vg=0.217
.step vg=0.218
.step vg=0.219
.step vg=0.22
.step vg=0.221
.step vg=0.222
.step vg=0.223
.step vg=0.224
.step vg=0.225
.step vg=0.226
.step vg=0.227
.step vg=0.228
.step vg=0.229
.step vg=0.23
.step vg=0.231
.step vg=0.232
.step vg=0.233
.step vg=0.234
.step vg=0.235
.step vg=0.236
.step vg=0.237
.step vg=0.238
.step vg=0.239
.step vg=0.24
.step vg=0.241
.step vg=0.242
.step vg=0.243
.step vg=0.244
.step vg=0.245
.step vg=0.246
.step vg=0.247
.step vg=0.248
.step vg=0.249
.step vg=0.25
.step vg=0.251
.step vg=0.252
.step vg=0.253
.step vg=0.254
.step vg=0.255
.step vg=0.256
.step vg=0.257
.step vg=0.258
.step vg=0.259
.step vg=0.26
.step vg=0.261
.step vg=0.262
.step vg=0.263
.step vg=0.264
.step vg=0.265
.step vg=0.266
.step vg=0.267
.step vg=0.268
.step vg=0.269

Date: Sat Aug 12 22:30:17 2023
Total elapsed time: 11.778 seconds.

tnom = 27
temp = 27
method = trap
totiter = 2700810
traniter = 0
tranpoints = 0
accept = 0
rejected = 0
matrix size = 8
fillins = 0
solver = Normal
Matrix Compiler1: 264 bytes object code size  0.1/0.1/[0.1]
Matrix Compiler2: 442 bytes object code size  0.1/0.1/[0.1]

