Circuit: *** SPICE deck for cell R_divider{lay} from library R_divider

Direct Newton iteration for .op point succeeded.

Date: Sat Aug 12 08:33:23 2023
Total elapsed time: 0.210 seconds.

tnom = 27
temp = 27
method = modified trap
totiter = 2091
traniter = 2088
tranpoints = 1045
accept = 1045
rejected = 0
matrix size = 3
fillins = 0
solver = Normal
Matrix Compiler1:       3 opcodes  0.1/[0.0]/0.1
Matrix Compiler2: 175 bytes object code size  0.1/0.1/[0.1]

